data/datasets/lanl400/lanl400.dss
Clear
Set DefaultBaseFrequency=60
new circuit.LANL420Nodeckt
~ Angle=45
~ basekv=0.4 pu=1 phases=1 bus1=101.1 enabled=n ! VOLTAGE SOURCE DEFINITION

New linecode.mtx001 nphases=1 Units=m Rmatrix=[0.97] Xmatrix=[0.22]
New linecode.mtx002 nphases=1 Units=m Rmatrix=[0.90] Xmatrix=[0.22]
New linecode.mtx003 nphases=1 Units=m Rmatrix=[0.83] Xmatrix=[0.74]
New linecode.mtx004 nphases=1 Units=m Rmatrix=[0.18] Xmatrix=[0.68]
New linecode.mtx005 nphases=1 Units=m Rmatrix=[0.54] Xmatrix=[0.87]
New linecode.mtx006 nphases=1 Units=m Rmatrix=[0.92] Xmatrix=[0.23]
New linecode.mtx007 nphases=1 Units=m Rmatrix=[0.89] Xmatrix=[0.66]
New linecode.mtx008 nphases=1 Units=m Rmatrix=[0.34] Xmatrix=[0.59]
New linecode.mtx009 nphases=1 Units=m Rmatrix=[0.28] Xmatrix=[0.04]
New linecode.mtx010 nphases=1 Units=m Rmatrix=[0.41] Xmatrix=[0.18]
New linecode.mtx011 nphases=1 Units=m Rmatrix=[0.62] Xmatrix=[0.54]
New linecode.mtx012 nphases=1 Units=m Rmatrix=[0.54] Xmatrix=[0.80]
New linecode.mtx013 nphases=1 Units=m Rmatrix=[0.03] Xmatrix=[0.34]
New linecode.mtx014 nphases=1 Units=m Rmatrix=[0.06] Xmatrix=[0.86]
New linecode.mtx015 nphases=1 Units=m Rmatrix=[0.96] Xmatrix=[0.50]
New linecode.mtx016 nphases=1 Units=m Rmatrix=[0.20] Xmatrix=[0.52]
New linecode.mtx017 nphases=1 Units=m Rmatrix=[0.09] Xmatrix=[0.50]
New linecode.mtx018 nphases=1 Units=m Rmatrix=[0.98] Xmatrix=[0.35]
New linecode.mtx019 nphases=1 Units=m Rmatrix=[0.17] Xmatrix=[0.02]
New linecode.mtx020 nphases=1 Units=m Rmatrix=[0.09] Xmatrix=[0.80]
New linecode.mtx021 nphases=1 Units=m Rmatrix=[0.69] Xmatrix=[0.16]
New linecode.mtx022 nphases=1 Units=m Rmatrix=[0.50] Xmatrix=[0.82]
New linecode.mtx023 nphases=1 Units=m Rmatrix=[0.43] Xmatrix=[0.64]
New linecode.mtx024 nphases=1 Units=m Rmatrix=[0.78] Xmatrix=[0.00]
New linecode.mtx025 nphases=1 Units=m Rmatrix=[0.24] Xmatrix=[0.00]
New linecode.mtx026 nphases=1 Units=m Rmatrix=[0.22] Xmatrix=[0.89]
New linecode.mtx027 nphases=1 Units=m Rmatrix=[0.29] Xmatrix=[0.51]
New linecode.mtx028 nphases=1 Units=m Rmatrix=[0.41] Xmatrix=[0.44]
New linecode.mtx029 nphases=1 Units=m Rmatrix=[0.02] Xmatrix=[0.06]
New linecode.mtx030 nphases=1 Units=m Rmatrix=[0.02] Xmatrix=[0.76]
New linecode.mtx031 nphases=1 Units=m Rmatrix=[0.71] Xmatrix=[0.56]
New linecode.mtx032 nphases=1 Units=m Rmatrix=[0.98] Xmatrix=[0.75]
New linecode.mtx033 nphases=1 Units=m Rmatrix=[0.22] Xmatrix=[0.39]
New linecode.mtx034 nphases=1 Units=m Rmatrix=[0.64] Xmatrix=[0.56]
New linecode.mtx035 nphases=1 Units=m Rmatrix=[0.10] Xmatrix=[0.94]
New linecode.mtx036 nphases=1 Units=m Rmatrix=[0.33] Xmatrix=[0.24]
New linecode.mtx037 nphases=1 Units=m Rmatrix=[0.66] Xmatrix=[0.55]
New linecode.mtx038 nphases=1 Units=m Rmatrix=[0.43] Xmatrix=[0.14]
New linecode.mtx039 nphases=1 Units=m Rmatrix=[0.84] Xmatrix=[0.50]
New linecode.mtx040 nphases=1 Units=m Rmatrix=[0.36] Xmatrix=[0.50]
New linecode.mtx041 nphases=1 Units=m Rmatrix=[0.07] Xmatrix=[0.36]
New linecode.mtx042 nphases=1 Units=m Rmatrix=[0.72] Xmatrix=[0.19]
New linecode.mtx043 nphases=1 Units=m Rmatrix=[0.82] Xmatrix=[0.67]
New linecode.mtx044 nphases=1 Units=m Rmatrix=[0.13] Xmatrix=[0.39]
New linecode.mtx045 nphases=1 Units=m Rmatrix=[0.18] Xmatrix=[0.15]
New linecode.mtx046 nphases=1 Units=m Rmatrix=[0.10] Xmatrix=[0.82]
New linecode.mtx047 nphases=1 Units=m Rmatrix=[0.68] Xmatrix=[0.33]
New linecode.mtx048 nphases=1 Units=m Rmatrix=[0.82] Xmatrix=[0.16]
New linecode.mtx049 nphases=1 Units=m Rmatrix=[0.39] Xmatrix=[0.38]
New linecode.mtx050 nphases=1 Units=m Rmatrix=[0.35] Xmatrix=[0.05]
New linecode.mtx051 nphases=1 Units=m Rmatrix=[0.56] Xmatrix=[0.62]
New linecode.mtx052 nphases=1 Units=m Rmatrix=[0.90] Xmatrix=[0.85]
New linecode.mtx053 nphases=1 Units=m Rmatrix=[0.32] Xmatrix=[0.88]
New linecode.mtx054 nphases=1 Units=m Rmatrix=[0.87] Xmatrix=[0.11]
New linecode.mtx055 nphases=1 Units=m Rmatrix=[0.35] Xmatrix=[1.00]
New linecode.mtx056 nphases=1 Units=m Rmatrix=[0.75] Xmatrix=[0.10]
New linecode.mtx057 nphases=1 Units=m Rmatrix=[0.58] Xmatrix=[0.12]
New linecode.mtx058 nphases=1 Units=m Rmatrix=[0.76] Xmatrix=[0.03]
New linecode.mtx059 nphases=1 Units=m Rmatrix=[0.48] Xmatrix=[0.11]
New linecode.mtx060 nphases=1 Units=m Rmatrix=[0.64] Xmatrix=[0.80]
New linecode.mtx061 nphases=1 Units=m Rmatrix=[0.15] Xmatrix=[0.94]
New linecode.mtx062 nphases=1 Units=m Rmatrix=[0.88] Xmatrix=[0.15]
New linecode.mtx063 nphases=1 Units=m Rmatrix=[0.88] Xmatrix=[0.75]
New linecode.mtx064 nphases=1 Units=m Rmatrix=[0.96] Xmatrix=[0.18]
New linecode.mtx065 nphases=1 Units=m Rmatrix=[0.77] Xmatrix=[0.16]
New linecode.mtx066 nphases=1 Units=m Rmatrix=[0.45] Xmatrix=[0.89]
New linecode.mtx067 nphases=1 Units=m Rmatrix=[0.53] Xmatrix=[0.59]
New linecode.mtx068 nphases=1 Units=m Rmatrix=[0.18] Xmatrix=[0.49]
New linecode.mtx069 nphases=1 Units=m Rmatrix=[0.77] Xmatrix=[0.77]
New linecode.mtx070 nphases=1 Units=m Rmatrix=[0.87] Xmatrix=[0.24]
New linecode.mtx071 nphases=1 Units=m Rmatrix=[0.07] Xmatrix=[0.71]
New linecode.mtx072 nphases=1 Units=m Rmatrix=[0.42] Xmatrix=[0.66]
New linecode.mtx073 nphases=1 Units=m Rmatrix=[0.64] Xmatrix=[0.43]
New linecode.mtx074 nphases=1 Units=m Rmatrix=[0.23] Xmatrix=[0.10]
New linecode.mtx075 nphases=1 Units=m Rmatrix=[0.27] Xmatrix=[0.57]
New linecode.mtx076 nphases=1 Units=m Rmatrix=[0.87] Xmatrix=[0.68]
New linecode.mtx077 nphases=1 Units=m Rmatrix=[0.12] Xmatrix=[0.26]
New linecode.mtx078 nphases=1 Units=m Rmatrix=[0.87] Xmatrix=[0.92]
New linecode.mtx079 nphases=1 Units=m Rmatrix=[0.03] Xmatrix=[0.94]
New linecode.mtx080 nphases=1 Units=m Rmatrix=[0.50] Xmatrix=[0.22]
New linecode.mtx081 nphases=1 Units=m Rmatrix=[0.91] Xmatrix=[0.91]
New linecode.mtx082 nphases=1 Units=m Rmatrix=[0.72] Xmatrix=[0.26]
New linecode.mtx083 nphases=1 Units=m Rmatrix=[0.53] Xmatrix=[0.70]
New linecode.mtx084 nphases=1 Units=m Rmatrix=[0.08] Xmatrix=[0.65]
New linecode.mtx085 nphases=1 Units=m Rmatrix=[0.41] Xmatrix=[0.46]
New linecode.mtx086 nphases=1 Units=m Rmatrix=[0.43] Xmatrix=[0.01]
New linecode.mtx087 nphases=1 Units=m Rmatrix=[0.08] Xmatrix=[0.56]
New linecode.mtx088 nphases=1 Units=m Rmatrix=[0.95] Xmatrix=[0.63]
New linecode.mtx089 nphases=1 Units=m Rmatrix=[0.23] Xmatrix=[0.22]
New linecode.mtx090 nphases=1 Units=m Rmatrix=[0.18] Xmatrix=[0.03]
New linecode.mtx091 nphases=1 Units=m Rmatrix=[0.21] Xmatrix=[0.42]
New linecode.mtx092 nphases=1 Units=m Rmatrix=[0.66] Xmatrix=[0.46]
New linecode.mtx093 nphases=1 Units=m Rmatrix=[0.21] Xmatrix=[0.71]
New linecode.mtx094 nphases=1 Units=m Rmatrix=[0.71] Xmatrix=[0.64]
New linecode.mtx095 nphases=1 Units=m Rmatrix=[0.59] Xmatrix=[0.62]
New linecode.mtx096 nphases=1 Units=m Rmatrix=[0.89] Xmatrix=[0.84]
New linecode.mtx097 nphases=1 Units=m Rmatrix=[0.36] Xmatrix=[0.89]
New linecode.mtx098 nphases=1 Units=m Rmatrix=[0.48] Xmatrix=[0.70]
New linecode.mtx099 nphases=1 Units=m Rmatrix=[0.11] Xmatrix=[0.81]
New linecode.mtx100 nphases=1 Units=m Rmatrix=[0.98] Xmatrix=[0.33]
New linecode.mtx101 nphases=1 Units=m Rmatrix=[0.10] Xmatrix=[0.70]
New linecode.mtx102 nphases=1 Units=m Rmatrix=[0.71] Xmatrix=[0.10]
New linecode.mtx103 nphases=1 Units=m Rmatrix=[0.95] Xmatrix=[0.23]
New linecode.mtx104 nphases=1 Units=m Rmatrix=[0.47] Xmatrix=[0.94]
New linecode.mtx105 nphases=1 Units=m Rmatrix=[0.64] Xmatrix=[0.49]
New linecode.mtx106 nphases=1 Units=m Rmatrix=[0.51] Xmatrix=[0.62]
New linecode.mtx107 nphases=1 Units=m Rmatrix=[0.73] Xmatrix=[0.53]
New linecode.mtx108 nphases=1 Units=m Rmatrix=[0.80] Xmatrix=[0.39]
New linecode.mtx109 nphases=1 Units=m Rmatrix=[0.33] Xmatrix=[0.09]
New linecode.mtx110 nphases=1 Units=m Rmatrix=[0.60] Xmatrix=[0.91]
New linecode.mtx111 nphases=1 Units=m Rmatrix=[0.31] Xmatrix=[0.06]
New linecode.mtx112 nphases=1 Units=m Rmatrix=[0.72] Xmatrix=[0.38]
New linecode.mtx113 nphases=1 Units=m Rmatrix=[0.26] Xmatrix=[0.25]
New linecode.mtx114 nphases=1 Units=m Rmatrix=[0.15] Xmatrix=[0.50]
New linecode.mtx115 nphases=1 Units=m Rmatrix=[0.29] Xmatrix=[0.26]
New linecode.mtx116 nphases=1 Units=m Rmatrix=[0.55] Xmatrix=[0.94]
New linecode.mtx117 nphases=1 Units=m Rmatrix=[0.25] Xmatrix=[0.54]
New linecode.mtx118 nphases=1 Units=m Rmatrix=[0.42] Xmatrix=[0.90]
New linecode.mtx119 nphases=1 Units=m Rmatrix=[0.37] Xmatrix=[0.70]
New linecode.mtx120 nphases=1 Units=m Rmatrix=[0.17] Xmatrix=[0.18]
New linecode.mtx121 nphases=1 Units=m Rmatrix=[0.98] Xmatrix=[0.15]
New linecode.mtx122 nphases=1 Units=m Rmatrix=[0.98] Xmatrix=[0.54]
New linecode.mtx123 nphases=1 Units=m Rmatrix=[0.14] Xmatrix=[0.62]
New linecode.mtx124 nphases=1 Units=m Rmatrix=[0.65] Xmatrix=[0.00]
New linecode.mtx125 nphases=1 Units=m Rmatrix=[0.91] Xmatrix=[0.80]
New linecode.mtx126 nphases=1 Units=m Rmatrix=[0.94] Xmatrix=[0.27]
New linecode.mtx127 nphases=1 Units=m Rmatrix=[0.85] Xmatrix=[0.54]
New linecode.mtx128 nphases=1 Units=m Rmatrix=[0.56] Xmatrix=[0.21]
New linecode.mtx129 nphases=1 Units=m Rmatrix=[0.87] Xmatrix=[0.77]
New linecode.mtx130 nphases=1 Units=m Rmatrix=[0.47] Xmatrix=[0.97]
New linecode.mtx131 nphases=1 Units=m Rmatrix=[0.54] Xmatrix=[0.05]
New linecode.mtx132 nphases=1 Units=m Rmatrix=[0.73] Xmatrix=[0.32]
New linecode.mtx133 nphases=1 Units=m Rmatrix=[0.33] Xmatrix=[0.91]
New linecode.mtx134 nphases=1 Units=m Rmatrix=[0.53] Xmatrix=[0.88]
New linecode.mtx135 nphases=1 Units=m Rmatrix=[0.12] Xmatrix=[0.04]
New linecode.mtx136 nphases=1 Units=m Rmatrix=[0.21] Xmatrix=[0.75]
New linecode.mtx137 nphases=1 Units=m Rmatrix=[0.85] Xmatrix=[0.42]
New linecode.mtx138 nphases=1 Units=m Rmatrix=[0.55] Xmatrix=[0.79]
New linecode.mtx139 nphases=1 Units=m Rmatrix=[0.08] Xmatrix=[0.26]
New linecode.mtx140 nphases=1 Units=m Rmatrix=[0.27] Xmatrix=[0.16]
New linecode.mtx141 nphases=1 Units=m Rmatrix=[0.32] Xmatrix=[0.21]
New linecode.mtx142 nphases=1 Units=m Rmatrix=[0.59] Xmatrix=[0.87]
New linecode.mtx143 nphases=1 Units=m Rmatrix=[0.55] Xmatrix=[0.49]
New linecode.mtx144 nphases=1 Units=m Rmatrix=[0.59] Xmatrix=[0.02]
New linecode.mtx145 nphases=1 Units=m Rmatrix=[0.32] Xmatrix=[0.77]
New linecode.mtx146 nphases=1 Units=m Rmatrix=[0.85] Xmatrix=[0.05]
New linecode.mtx147 nphases=1 Units=m Rmatrix=[0.37] Xmatrix=[0.40]
New linecode.mtx148 nphases=1 Units=m Rmatrix=[0.08] Xmatrix=[0.27]
New linecode.mtx149 nphases=1 Units=m Rmatrix=[0.48] Xmatrix=[0.48]
New linecode.mtx150 nphases=1 Units=m Rmatrix=[0.12] Xmatrix=[0.78]
New linecode.mtx151 nphases=1 Units=m Rmatrix=[0.77] Xmatrix=[0.89]
New linecode.mtx152 nphases=1 Units=m Rmatrix=[0.29] Xmatrix=[0.16]
New linecode.mtx153 nphases=1 Units=m Rmatrix=[0.06] Xmatrix=[0.17]
New linecode.mtx154 nphases=1 Units=m Rmatrix=[0.93] Xmatrix=[0.75]
New linecode.mtx155 nphases=1 Units=m Rmatrix=[0.93] Xmatrix=[0.76]
New linecode.mtx156 nphases=1 Units=m Rmatrix=[0.93] Xmatrix=[0.64]
New linecode.mtx157 nphases=1 Units=m Rmatrix=[0.77] Xmatrix=[0.15]
New linecode.mtx158 nphases=1 Units=m Rmatrix=[0.07] Xmatrix=[0.85]
New linecode.mtx159 nphases=1 Units=m Rmatrix=[0.49] Xmatrix=[0.16]
New linecode.mtx160 nphases=1 Units=m Rmatrix=[0.46] Xmatrix=[0.04]
New linecode.mtx161 nphases=1 Units=m Rmatrix=[0.97] Xmatrix=[0.98]
New linecode.mtx162 nphases=1 Units=m Rmatrix=[0.10] Xmatrix=[0.45]
New linecode.mtx163 nphases=1 Units=m Rmatrix=[0.64] Xmatrix=[1.00]
New linecode.mtx164 nphases=1 Units=m Rmatrix=[0.46] Xmatrix=[0.52]
New linecode.mtx165 nphases=1 Units=m Rmatrix=[0.75] Xmatrix=[0.53]
New linecode.mtx166 nphases=1 Units=m Rmatrix=[0.21] Xmatrix=[0.95]
New linecode.mtx167 nphases=1 Units=m Rmatrix=[0.09] Xmatrix=[0.78]
New linecode.mtx168 nphases=1 Units=m Rmatrix=[0.34] Xmatrix=[0.63]
New linecode.mtx169 nphases=1 Units=m Rmatrix=[0.54] Xmatrix=[0.25]
New linecode.mtx170 nphases=1 Units=m Rmatrix=[0.07] Xmatrix=[0.06]
New linecode.mtx171 nphases=1 Units=m Rmatrix=[0.19] Xmatrix=[0.56]
New linecode.mtx172 nphases=1 Units=m Rmatrix=[0.14] Xmatrix=[0.40]
New linecode.mtx173 nphases=1 Units=m Rmatrix=[0.80] Xmatrix=[0.87]
New linecode.mtx174 nphases=1 Units=m Rmatrix=[0.78] Xmatrix=[0.86]
New linecode.mtx175 nphases=1 Units=m Rmatrix=[0.58] Xmatrix=[0.72]
New linecode.mtx176 nphases=1 Units=m Rmatrix=[0.76] Xmatrix=[0.76]
New linecode.mtx177 nphases=1 Units=m Rmatrix=[0.45] Xmatrix=[0.05]
New linecode.mtx178 nphases=1 Units=m Rmatrix=[0.82] Xmatrix=[0.55]
New linecode.mtx179 nphases=1 Units=m Rmatrix=[0.45] Xmatrix=[0.90]
New linecode.mtx180 nphases=1 Units=m Rmatrix=[0.41] Xmatrix=[0.86]
New linecode.mtx181 nphases=1 Units=m Rmatrix=[0.64] Xmatrix=[0.88]
New linecode.mtx182 nphases=1 Units=m Rmatrix=[0.99] Xmatrix=[0.23]
New linecode.mtx183 nphases=1 Units=m Rmatrix=[0.52] Xmatrix=[0.64]
New linecode.mtx184 nphases=1 Units=m Rmatrix=[0.75] Xmatrix=[0.71]
New linecode.mtx185 nphases=1 Units=m Rmatrix=[0.14] Xmatrix=[0.54]
New linecode.mtx186 nphases=1 Units=m Rmatrix=[0.01] Xmatrix=[0.13]
New linecode.mtx187 nphases=1 Units=m Rmatrix=[0.59] Xmatrix=[0.08]
New linecode.mtx188 nphases=1 Units=m Rmatrix=[0.06] Xmatrix=[0.02]
New linecode.mtx189 nphases=1 Units=m Rmatrix=[1.00] Xmatrix=[0.65]
New linecode.mtx190 nphases=1 Units=m Rmatrix=[0.22] Xmatrix=[0.92]
New linecode.mtx191 nphases=1 Units=m Rmatrix=[0.92] Xmatrix=[0.37]
New linecode.mtx192 nphases=1 Units=m Rmatrix=[0.44] Xmatrix=[0.12]
New linecode.mtx193 nphases=1 Units=m Rmatrix=[0.71] Xmatrix=[0.99]
New linecode.mtx194 nphases=1 Units=m Rmatrix=[0.89] Xmatrix=[0.22]
New linecode.mtx195 nphases=1 Units=m Rmatrix=[0.77] Xmatrix=[0.56]
New linecode.mtx196 nphases=1 Units=m Rmatrix=[0.16] Xmatrix=[0.56]
New linecode.mtx197 nphases=1 Units=m Rmatrix=[0.22] Xmatrix=[0.44]
New linecode.mtx198 nphases=1 Units=m Rmatrix=[0.51] Xmatrix=[0.19]
New linecode.mtx199 nphases=1 Units=m Rmatrix=[0.98] Xmatrix=[0.40]
New linecode.mtx200 nphases=1 Units=m Rmatrix=[0.41] Xmatrix=[0.40]
...

!LOAD DEFINITIONS  -- kV is vm_nom and kW is pd_nom
New Load.253  Bus1=253.1  Phases=1 Conn=POWER  Model=1   kW=134 kvar=134 vminpu=0 vmaxpu=12
New Load.515  Bus1=515.1  Phases=1 Conn=POWER  Model=1   kW=270 kvar=270 vminpu=0 vmaxpu=12
New Load.443  Bus1=443.1  Phases=1 Conn=POWER  Model=1   kW=667 kvar=667 vminpu=0 vmaxpu=12
New Load.508  Bus1=508.1  Phases=1 Conn=POWER  Model=1   kW=604 kvar=604 vminpu=0 vmaxpu=12
New Load.131  Bus1=131.1  Phases=1 Conn=POWER  Model=1   kW=186 kvar=186 vminpu=0 vmaxpu=12
New Load.285  Bus1=285.1  Phases=1 Conn=POWER  Model=1   kW=367 kvar=367 vminpu=0 vmaxpu=12
New Load.127  Bus1=127.1  Phases=1 Conn=POWER  Model=1   kW=588 kvar=588 vminpu=0 vmaxpu=12
New Load.486  Bus1=486.1  Phases=1 Conn=POWER  Model=1   kW=680 kvar=680 vminpu=0 vmaxpu=12
New Load.387  Bus1=387.1  Phases=1 Conn=POWER  Model=1   kW=437 kvar=437 vminpu=0 vmaxpu=12
New Load.394  Bus1=394.1  Phases=1 Conn=POWER  Model=1   kW=835 kvar=835 vminpu=0 vmaxpu=12
New Load.203  Bus1=203.1  Phases=1 Conn=POWER  Model=1   kW=789 kvar=789 vminpu=0 vmaxpu=12
New Load.493  Bus1=493.1  Phases=1 Conn=POWER  Model=1   kW=138 kvar=138 vminpu=0 vmaxpu=12
New Load.208  Bus1=208.1  Phases=1 Conn=POWER  Model=1   kW=533 kvar=533 vminpu=0 vmaxpu=12
New Load.467  Bus1=467.1  Phases=1 Conn=POWER  Model=1   kW=883 kvar=883 vminpu=0 vmaxpu=12
New Load.165  Bus1=165.1  Phases=1 Conn=POWER  Model=1   kW=121 kvar=121 vminpu=0 vmaxpu=12
New Load.189  Bus1=189.1  Phases=1 Conn=POWER  Model=1   kW=412 kvar=412 vminpu=0 vmaxpu=12
New Load.162  Bus1=162.1  Phases=1 Conn=POWER  Model=1   kW=898 kvar=898 vminpu=0 vmaxpu=12
New Load.469  Bus1=469.1  Phases=1 Conn=POWER  Model=1   kW=481 kvar=481 vminpu=0 vmaxpu=12
New Load.214  Bus1=214.1  Phases=1 Conn=POWER  Model=1   kW=638 kvar=638 vminpu=0 vmaxpu=12
New Load.283  Bus1=283.1  Phases=1 Conn=POWER  Model=1   kW=145 kvar=145 vminpu=0 vmaxpu=12
New Load.327  Bus1=327.1  Phases=1 Conn=POWER  Model=1   kW=718 kvar=718 vminpu=0 vmaxpu=12
New Load.271  Bus1=271.1  Phases=1 Conn=POWER  Model=1   kW=241 kvar=241 vminpu=0 vmaxpu=12
New Load.495  Bus1=495.1  Phases=1 Conn=POWER  Model=1   kW=543 kvar=543 vminpu=0 vmaxpu=12
New Load.411  Bus1=411.1  Phases=1 Conn=POWER  Model=1   kW=109 kvar=109 vminpu=0 vmaxpu=12
New Load.201  Bus1=201.1  Phases=1 Conn=POWER  Model=1   kW=347 kvar=347 vminpu=0 vmaxpu=12
New Load.243  Bus1=243.1  Phases=1 Conn=POWER  Model=1   kW=103 kvar=103 vminpu=0 vmaxpu=12
New Load.125  Bus1=125.1  Phases=1 Conn=POWER  Model=1   kW=788 kvar=788 vminpu=0 vmaxpu=12
New Load.334  Bus1=334.1  Phases=1 Conn=POWER  Model=1   kW=710 kvar=710 vminpu=0 vmaxpu=12
New Load.513  Bus1=513.1  Phases=1 Conn=POWER  Model=1   kW=979 kvar=979 vminpu=0 vmaxpu=12
New Load.163  Bus1=163.1  Phases=1 Conn=POWER  Model=1   kW=250 kvar=250 vminpu=0 vmaxpu=12
New Load.241  Bus1=241.1  Phases=1 Conn=POWER  Model=1   kW=800 kvar=800 vminpu=0 vmaxpu=12
New Load.393  Bus1=393.1  Phases=1 Conn=POWER  Model=1   kW=661 kvar=661 vminpu=0 vmaxpu=12
New Load.237  Bus1=237.1  Phases=1 Conn=POWER  Model=1   kW=730 kvar=730 vminpu=0 vmaxpu=12
New Load.441  Bus1=441.1  Phases=1 Conn=POWER  Model=1   kW=502 kvar=502 vminpu=0 vmaxpu=12
New Load.506  Bus1=506.1  Phases=1 Conn=POWER  Model=1   kW=638 kvar=638 vminpu=0 vmaxpu=12
New Load.336  Bus1=336.1  Phases=1 Conn=POWER  Model=1   kW=365 kvar=365 vminpu=0 vmaxpu=12
New Load.301  Bus1=301.1  Phases=1 Conn=POWER  Model=1   kW=280 kvar=280 vminpu=0 vmaxpu=12
New Load.338  Bus1=338.1  Phases=1 Conn=POWER  Model=1   kW=498 kvar=498 vminpu=0 vmaxpu=12
New Load.342  Bus1=342.1  Phases=1 Conn=POWER  Model=1   kW=411 kvar=411 vminpu=0 vmaxpu=12
New Load.476  Bus1=476.1  Phases=1 Conn=POWER  Model=1   kW=868 kvar=868 vminpu=0 vmaxpu=12
New Load.259  Bus1=259.1  Phases=1 Conn=POWER  Model=1   kW=314 kvar=314 vminpu=0 vmaxpu=12
New Load.273  Bus1=273.1  Phases=1 Conn=POWER  Model=1   kW=270 kvar=270 vminpu=0 vmaxpu=12
New Load.200  Bus1=200.1  Phases=1 Conn=POWER  Model=1   kW=560 kvar=560 vminpu=0 vmaxpu=12
New Load.102  Bus1=102.1  Phases=1 Conn=POWER  Model=1   kW=368 kvar=368 vminpu=0 vmaxpu=12
New Load.473  Bus1=473.1  Phases=1 Conn=POWER  Model=1   kW=882 kvar=882 vminpu=0 vmaxpu=12
New Load.433  Bus1=433.1  Phases=1 Conn=POWER  Model=1   kW=679 kvar=679 vminpu=0 vmaxpu=12
New Load.332  Bus1=332.1  Phases=1 Conn=POWER  Model=1   kW=256 kvar=256 vminpu=0 vmaxpu=12
New Load.479  Bus1=479.1  Phases=1 Conn=POWER  Model=1   kW=676 kvar=676 vminpu=0 vmaxpu=12
New Load.343  Bus1=343.1  Phases=1 Conn=POWER  Model=1   kW=117 kvar=117 vminpu=0 vmaxpu=12
New Load.500  Bus1=500.1  Phases=1 Conn=POWER  Model=1   kW=660 kvar=660 vminpu=0 vmaxpu=12
New Load.449  Bus1=449.1  Phases=1 Conn=POWER  Model=1   kW=448 kvar=448 vminpu=0 vmaxpu=12
New Load.492  Bus1=492.1  Phases=1 Conn=POWER  Model=1   kW=109 kvar=109 vminpu=0 vmaxpu=12
New Load.244  Bus1=244.1  Phases=1 Conn=POWER  Model=1   kW=675 kvar=675 vminpu=0 vmaxpu=12
New Load.323  Bus1=323.1  Phases=1 Conn=POWER  Model=1   kW=362 kvar=362 vminpu=0 vmaxpu=12
New Load.256  Bus1=256.1  Phases=1 Conn=POWER  Model=1   kW=256 kvar=256 vminpu=0 vmaxpu=12
New Load.435  Bus1=435.1  Phases=1 Conn=POWER  Model=1   kW=646 kvar=646 vminpu=0 vmaxpu=12
New Load.358  Bus1=358.1  Phases=1 Conn=POWER  Model=1   kW=548 kvar=548 vminpu=0 vmaxpu=12
New Load.346  Bus1=346.1  Phases=1 Conn=POWER  Model=1   kW=888 kvar=888 vminpu=0 vmaxpu=12
New Load.217  Bus1=217.1  Phases=1 Conn=POWER  Model=1   kW=717 kvar=717 vminpu=0 vmaxpu=12
New Load.312  Bus1=312.1  Phases=1 Conn=POWER  Model=1   kW=736 kvar=736 vminpu=0 vmaxpu=12
New Load.502  Bus1=502.1  Phases=1 Conn=POWER  Model=1   kW=267 kvar=267 vminpu=0 vmaxpu=12
New Load.219  Bus1=219.1  Phases=1 Conn=POWER  Model=1   kW=439 kvar=439 vminpu=0 vmaxpu=12
New Load.188  Bus1=188.1  Phases=1 Conn=POWER  Model=1   kW=753 kvar=753 vminpu=0 vmaxpu=12
New Load.122  Bus1=122.1  Phases=1 Conn=POWER  Model=1   kW=279 kvar=279 vminpu=0 vmaxpu=12
New Load.374  Bus1=374.1  Phases=1 Conn=POWER  Model=1   kW=567 kvar=567 vminpu=0 vmaxpu=12
New Load.308  Bus1=308.1  Phases=1 Conn=POWER  Model=1   kW=227 kvar=227 vminpu=0 vmaxpu=12
New Load.391  Bus1=391.1  Phases=1 Conn=POWER  Model=1   kW=615 kvar=615 vminpu=0 vmaxpu=12
New Load.463  Bus1=463.1  Phases=1 Conn=POWER  Model=1   kW=500 kvar=500 vminpu=0 vmaxpu=12
New Load.402  Bus1=402.1  Phases=1 Conn=POWER  Model=1   kW=143 kvar=143 vminpu=0 vmaxpu=12
New Load.175  Bus1=175.1  Phases=1 Conn=POWER  Model=1   kW=718 kvar=718 vminpu=0 vmaxpu=12
New Load.417  Bus1=417.1  Phases=1 Conn=POWER  Model=1   kW=283 kvar=283 vminpu=0 vmaxpu=12
New Load.475  Bus1=475.1  Phases=1 Conn=POWER  Model=1   kW=733 kvar=733 vminpu=0 vmaxpu=12
New Load.415  Bus1=415.1  Phases=1 Conn=POWER  Model=1   kW=134 kvar=134 vminpu=0 vmaxpu=12
New Load.215  Bus1=215.1  Phases=1 Conn=POWER  Model=1   kW=291 kvar=291 vminpu=0 vmaxpu=12
New Load.403  Bus1=403.1  Phases=1 Conn=POWER  Model=1   kW=518 kvar=518 vminpu=0 vmaxpu=12
New Load.213  Bus1=213.1  Phases=1 Conn=POWER  Model=1   kW=708 kvar=708 vminpu=0 vmaxpu=12
New Load.356  Bus1=356.1  Phases=1 Conn=POWER  Model=1   kW=174 kvar=174 vminpu=0 vmaxpu=12
New Load.410  Bus1=410.1  Phases=1 Conn=POWER  Model=1   kW=291 kvar=291 vminpu=0 vmaxpu=12
New Load.520  Bus1=520.1  Phases=1 Conn=POWER  Model=1   kW=605 kvar=605 vminpu=0 vmaxpu=12
New Load.344  Bus1=344.1  Phases=1 Conn=POWER  Model=1   kW=170 kvar=170 vminpu=0 vmaxpu=12
New Load.335  Bus1=335.1  Phases=1 Conn=POWER  Model=1   kW=255 kvar=255 vminpu=0 vmaxpu=12
New Load.164  Bus1=164.1  Phases=1 Conn=POWER  Model=1   kW=651 kvar=651 vminpu=0 vmaxpu=12
New Load.280  Bus1=280.1  Phases=1 Conn=POWER  Model=1   kW=696 kvar=696 vminpu=0 vmaxpu=12
New Load.519  Bus1=519.1  Phases=1 Conn=POWER  Model=1   kW=360 kvar=360 vminpu=0 vmaxpu=12
New Load.130  Bus1=130.1  Phases=1 Conn=POWER  Model=1   kW=926 kvar=926 vminpu=0 vmaxpu=12
New Load.365  Bus1=365.1  Phases=1 Conn=POWER  Model=1   kW=761 kvar=761 vminpu=0 vmaxpu=12
New Load.350  Bus1=350.1  Phases=1 Conn=POWER  Model=1   kW=208 kvar=208 vminpu=0 vmaxpu=12
New Load.340  Bus1=340.1  Phases=1 Conn=POWER  Model=1   kW=654 kvar=654 vminpu=0 vmaxpu=12
New Load.147  Bus1=147.1  Phases=1 Conn=POWER  Model=1   kW=645 kvar=645 vminpu=0 vmaxpu=12
New Load.517  Bus1=517.1  Phases=1 Conn=POWER  Model=1   kW=974 kvar=974 vminpu=0 vmaxpu=12
New Load.424  Bus1=424.1  Phases=1 Conn=POWER  Model=1   kW=112 kvar=112 vminpu=0 vmaxpu=12
New Load.397  Bus1=397.1  Phases=1 Conn=POWER  Model=1   kW=695 kvar=695 vminpu=0 vmaxpu=12
New Load.172  Bus1=172.1  Phases=1 Conn=POWER  Model=1   kW=468 kvar=468 vminpu=0 vmaxpu=12
New Load.209  Bus1=209.1  Phases=1 Conn=POWER  Model=1   kW=743 kvar=743 vminpu=0 vmaxpu=12
New Load.458  Bus1=458.1  Phases=1 Conn=POWER  Model=1   kW=892 kvar=892 vminpu=0 vmaxpu=12
New Load.484  Bus1=484.1  Phases=1 Conn=POWER  Model=1   kW=583 kvar=583 vminpu=0 vmaxpu=12
New Load.171  Bus1=171.1  Phases=1 Conn=POWER  Model=1   kW=986 kvar=986 vminpu=0 vmaxpu=12
New Load.373  Bus1=373.1  Phases=1 Conn=POWER  Model=1   kW=268 kvar=268 vminpu=0 vmaxpu=12
New Load.347  Bus1=347.1  Phases=1 Conn=POWER  Model=1   kW=832 kvar=832 vminpu=0 vmaxpu=12
New Load.511  Bus1=511.1  Phases=1 Conn=POWER  Model=1   kW=774 kvar=774 vminpu=0 vmaxpu=12
New Load.453  Bus1=453.1  Phases=1 Conn=POWER  Model=1   kW=468 kvar=468 vminpu=0 vmaxpu=12
New Load.398  Bus1=398.1  Phases=1 Conn=POWER  Model=1   kW=713 kvar=713 vminpu=0 vmaxpu=12
New Load.418  Bus1=418.1  Phases=1 Conn=POWER  Model=1   kW=222 kvar=222 vminpu=0 vmaxpu=12
New Load.260  Bus1=260.1  Phases=1 Conn=POWER  Model=1   kW=532 kvar=532 vminpu=0 vmaxpu=12
New Load.151  Bus1=151.1  Phases=1 Conn=POWER  Model=1   kW=448 kvar=448 vminpu=0 vmaxpu=12
New Load.352  Bus1=352.1  Phases=1 Conn=POWER  Model=1   kW=789 kvar=789 vminpu=0 vmaxpu=12
New Load.204  Bus1=204.1  Phases=1 Conn=POWER  Model=1   kW=307 kvar=307 vminpu=0 vmaxpu=12
New Load.225  Bus1=225.1  Phases=1 Conn=POWER  Model=1   kW=568 kvar=568 vminpu=0 vmaxpu=12
New Load.190  Bus1=190.1  Phases=1 Conn=POWER  Model=1   kW=400 kvar=400 vminpu=0 vmaxpu=12
New Load.119  Bus1=119.1  Phases=1 Conn=POWER  Model=1   kW=798 kvar=798 vminpu=0 vmaxpu=12
New Load.240  Bus1=240.1  Phases=1 Conn=POWER  Model=1   kW=585 kvar=585 vminpu=0 vmaxpu=12
New Load.470  Bus1=470.1  Phases=1 Conn=POWER  Model=1   kW=410 kvar=410 vminpu=0 vmaxpu=12
New Load.199  Bus1=199.1  Phases=1 Conn=POWER  Model=1   kW=926 kvar=926 vminpu=0 vmaxpu=12
New Load.193  Bus1=193.1  Phases=1 Conn=POWER  Model=1   kW=604 kvar=604 vminpu=0 vmaxpu=12
New Load.360  Bus1=360.1  Phases=1 Conn=POWER  Model=1   kW=963 kvar=963 vminpu=0 vmaxpu=12
New Load.306  Bus1=306.1  Phases=1 Conn=POWER  Model=1   kW=126 kvar=126 vminpu=0 vmaxpu=12
New Load.329  Bus1=329.1  Phases=1 Conn=POWER  Model=1   kW=541 kvar=541 vminpu=0 vmaxpu=12
New Load.183  Bus1=183.1  Phases=1 Conn=POWER  Model=1   kW=637 kvar=637 vminpu=0 vmaxpu=12
New Load.399  Bus1=399.1  Phases=1 Conn=POWER  Model=1   kW=647 kvar=647 vminpu=0 vmaxpu=12
New Load.464  Bus1=464.1  Phases=1 Conn=POWER  Model=1   kW=278 kvar=278 vminpu=0 vmaxpu=12
New Load.255  Bus1=255.1  Phases=1 Conn=POWER  Model=1   kW=631 kvar=631 vminpu=0 vmaxpu=12
New Load.437  Bus1=437.1  Phases=1 Conn=POWER  Model=1   kW=442 kvar=442 vminpu=0 vmaxpu=12
New Load.457  Bus1=457.1  Phases=1 Conn=POWER  Model=1   kW=289 kvar=289 vminpu=0 vmaxpu=12
New Load.317  Bus1=317.1  Phases=1 Conn=POWER  Model=1   kW=221 kvar=221 vminpu=0 vmaxpu=12
New Load.305  Bus1=305.1  Phases=1 Conn=POWER  Model=1   kW=124 kvar=124 vminpu=0 vmaxpu=12
New Load.158  Bus1=158.1  Phases=1 Conn=POWER  Model=1   kW=838 kvar=838 vminpu=0 vmaxpu=12
New Load.126  Bus1=126.1  Phases=1 Conn=POWER  Model=1   kW=759 kvar=759 vminpu=0 vmaxpu=12
New Load.210  Bus1=210.1  Phases=1 Conn=POWER  Model=1   kW=360 kvar=360 vminpu=0 vmaxpu=12
New Load.180  Bus1=180.1  Phases=1 Conn=POWER  Model=1   kW=897 kvar=897 vminpu=0 vmaxpu=12
New Load.474  Bus1=474.1  Phases=1 Conn=POWER  Model=1   kW=318 kvar=318 vminpu=0 vmaxpu=12
New Load.137  Bus1=137.1  Phases=1 Conn=POWER  Model=1   kW=529 kvar=529 vminpu=0 vmaxpu=12
New Load.223  Bus1=223.1  Phases=1 Conn=POWER  Model=1   kW=523 kvar=523 vminpu=0 vmaxpu=12
New Load.370  Bus1=370.1  Phases=1 Conn=POWER  Model=1   kW=548 kvar=548 vminpu=0 vmaxpu=12
New Load.354  Bus1=354.1  Phases=1 Conn=POWER  Model=1   kW=421 kvar=421 vminpu=0 vmaxpu=12
New Load.440  Bus1=440.1  Phases=1 Conn=POWER  Model=1   kW=843 kvar=843 vminpu=0 vmaxpu=12
New Load.353  Bus1=353.1  Phases=1 Conn=POWER  Model=1   kW=557 kvar=557 vminpu=0 vmaxpu=12
New Load.118  Bus1=118.1  Phases=1 Conn=POWER  Model=1   kW=210 kvar=210 vminpu=0 vmaxpu=12
New Load.168  Bus1=168.1  Phases=1 Conn=POWER  Model=1   kW=219 kvar=219 vminpu=0 vmaxpu=12
New Load.367  Bus1=367.1  Phases=1 Conn=POWER  Model=1   kW=772 kvar=772 vminpu=0 vmaxpu=12
New Load.245  Bus1=245.1  Phases=1 Conn=POWER  Model=1   kW=136 kvar=136 vminpu=0 vmaxpu=12
New Load.262  Bus1=262.1  Phases=1 Conn=POWER  Model=1   kW=474 kvar=474 vminpu=0 vmaxpu=12
New Load.471  Bus1=471.1  Phases=1 Conn=POWER  Model=1   kW=456 kvar=456 vminpu=0 vmaxpu=12
New Load.134  Bus1=134.1  Phases=1 Conn=POWER  Model=1   kW=144 kvar=144 vminpu=0 vmaxpu=12
New Load.182  Bus1=182.1  Phases=1 Conn=POWER  Model=1   kW=951 kvar=951 vminpu=0 vmaxpu=12
New Load.297  Bus1=297.1  Phases=1 Conn=POWER  Model=1   kW=402 kvar=402 vminpu=0 vmaxpu=12
New Load.207  Bus1=207.1  Phases=1 Conn=POWER  Model=1   kW=873 kvar=873 vminpu=0 vmaxpu=12
New Load.426  Bus1=426.1  Phases=1 Conn=POWER  Model=1   kW=503 kvar=503 vminpu=0 vmaxpu=12
New Load.512  Bus1=512.1  Phases=1 Conn=POWER  Model=1   kW=834 kvar=834 vminpu=0 vmaxpu=12
New Load.159  Bus1=159.1  Phases=1 Conn=POWER  Model=1   kW=490 kvar=490 vminpu=0 vmaxpu=12
New Load.120  Bus1=120.1  Phases=1 Conn=POWER  Model=1   kW=349 kvar=349 vminpu=0 vmaxpu=12
New Load.405  Bus1=405.1  Phases=1 Conn=POWER  Model=1   kW=818 kvar=818 vminpu=0 vmaxpu=12
New Load.233  Bus1=233.1  Phases=1 Conn=POWER  Model=1   kW=614 kvar=614 vminpu=0 vmaxpu=12
New Load.446  Bus1=446.1  Phases=1 Conn=POWER  Model=1   kW=950 kvar=950 vminpu=0 vmaxpu=12
New Load.461  Bus1=461.1  Phases=1 Conn=POWER  Model=1   kW=859 kvar=859 vminpu=0 vmaxpu=12
New Load.105  Bus1=105.1  Phases=1 Conn=POWER  Model=1   kW=861 kvar=861 vminpu=0 vmaxpu=12
New Load.452  Bus1=452.1  Phases=1 Conn=POWER  Model=1   kW=835 kvar=835 vminpu=0 vmaxpu=12
New Load.289  Bus1=289.1  Phases=1 Conn=POWER  Model=1   kW=903 kvar=903 vminpu=0 vmaxpu=12
New Load.364  Bus1=364.1  Phases=1 Conn=POWER  Model=1   kW=153 kvar=153 vminpu=0 vmaxpu=12
New Load.459  Bus1=459.1  Phases=1 Conn=POWER  Model=1   kW=319 kvar=319 vminpu=0 vmaxpu=12
New Load.129  Bus1=129.1  Phases=1 Conn=POWER  Model=1   kW=308 kvar=308 vminpu=0 vmaxpu=12
New Load.362  Bus1=362.1  Phases=1 Conn=POWER  Model=1   kW=465 kvar=465 vminpu=0 vmaxpu=12
New Load.288  Bus1=288.1  Phases=1 Conn=POWER  Model=1   kW=136 kvar=136 vminpu=0 vmaxpu=12
New Load.481  Bus1=481.1  Phases=1 Conn=POWER  Model=1   kW=357 kvar=357 vminpu=0 vmaxpu=12
New Load.324  Bus1=324.1  Phases=1 Conn=POWER  Model=1   kW=733 kvar=733 vminpu=0 vmaxpu=12
New Load.445  Bus1=445.1  Phases=1 Conn=POWER  Model=1   kW=386 kvar=386 vminpu=0 vmaxpu=12
New Load.228  Bus1=228.1  Phases=1 Conn=POWER  Model=1   kW=839 kvar=839 vminpu=0 vmaxpu=12
New Load.181  Bus1=181.1  Phases=1 Conn=POWER  Model=1   kW=437 kvar=437 vminpu=0 vmaxpu=12
New Load.404  Bus1=404.1  Phases=1 Conn=POWER  Model=1   kW=314 kvar=314 vminpu=0 vmaxpu=12
New Load.514  Bus1=514.1  Phases=1 Conn=POWER  Model=1   kW=251 kvar=251 vminpu=0 vmaxpu=12
New Load.272  Bus1=272.1  Phases=1 Conn=POWER  Model=1   kW=543 kvar=543 vminpu=0 vmaxpu=12
New Load.339  Bus1=339.1  Phases=1 Conn=POWER  Model=1   kW=683 kvar=683 vminpu=0 vmaxpu=12
New Load.439  Bus1=439.1  Phases=1 Conn=POWER  Model=1   kW=366 kvar=366 vminpu=0 vmaxpu=12
New Load.141  Bus1=141.1  Phases=1 Conn=POWER  Model=1   kW=342 kvar=342 vminpu=0 vmaxpu=12
New Load.314  Bus1=314.1  Phases=1 Conn=POWER  Model=1   kW=561 kvar=561 vminpu=0 vmaxpu=12
New Load.309  Bus1=309.1  Phases=1 Conn=POWER  Model=1   kW=179 kvar=179 vminpu=0 vmaxpu=12
New Load.421  Bus1=421.1  Phases=1 Conn=POWER  Model=1   kW=300 kvar=300 vminpu=0 vmaxpu=12
New Load.388  Bus1=388.1  Phases=1 Conn=POWER  Model=1   kW=316 kvar=316 vminpu=0 vmaxpu=12
New Load.303  Bus1=303.1  Phases=1 Conn=POWER  Model=1   kW=378 kvar=378 vminpu=0 vmaxpu=12
New Load.249  Bus1=249.1  Phases=1 Conn=POWER  Model=1   kW=463 kvar=463 vminpu=0 vmaxpu=12
New Load.211  Bus1=211.1  Phases=1 Conn=POWER  Model=1   kW=779 kvar=779 vminpu=0 vmaxpu=12
New Load.235  Bus1=235.1  Phases=1 Conn=POWER  Model=1   kW=640 kvar=640 vminpu=0 vmaxpu=12
New Load.284  Bus1=284.1  Phases=1 Conn=POWER  Model=1   kW=960 kvar=960 vminpu=0 vmaxpu=12
New Load.291  Bus1=291.1  Phases=1 Conn=POWER  Model=1   kW=574 kvar=574 vminpu=0 vmaxpu=12
New Load.381  Bus1=381.1  Phases=1 Conn=POWER  Model=1   kW=187 kvar=187 vminpu=0 vmaxpu=12
New Load.191  Bus1=191.1  Phases=1 Conn=POWER  Model=1   kW=217 kvar=217 vminpu=0 vmaxpu=12
New Load.396  Bus1=396.1  Phases=1 Conn=POWER  Model=1   kW=456 kvar=456 vminpu=0 vmaxpu=12
New Load.113  Bus1=113.1  Phases=1 Conn=POWER  Model=1   kW=571 kvar=571 vminpu=0 vmaxpu=12
New Load.290  Bus1=290.1  Phases=1 Conn=POWER  Model=1   kW=591 kvar=591 vminpu=0 vmaxpu=12
New Load.276  Bus1=276.1  Phases=1 Conn=POWER  Model=1   kW=932 kvar=932 vminpu=0 vmaxpu=12
New Load.257  Bus1=257.1  Phases=1 Conn=POWER  Model=1   kW=245 kvar=245 vminpu=0 vmaxpu=12
New Load.400  Bus1=400.1  Phases=1 Conn=POWER  Model=1   kW=175 kvar=175 vminpu=0 vmaxpu=12
New Load.152  Bus1=152.1  Phases=1 Conn=POWER  Model=1   kW=431 kvar=431 vminpu=0 vmaxpu=12
New Load.345  Bus1=345.1  Phases=1 Conn=POWER  Model=1   kW=553 kvar=553 vminpu=0 vmaxpu=12
New Load.442  Bus1=442.1  Phases=1 Conn=POWER  Model=1   kW=360 kvar=360 vminpu=0 vmaxpu=12
New Load.268  Bus1=268.1  Phases=1 Conn=POWER  Model=1   kW=445 kvar=445 vminpu=0 vmaxpu=12
New Load.250  Bus1=250.1  Phases=1 Conn=POWER  Model=1   kW=338 kvar=338 vminpu=0 vmaxpu=12
New Load.197  Bus1=197.1  Phases=1 Conn=POWER  Model=1   kW=468 kvar=468 vminpu=0 vmaxpu=12
New Load.510  Bus1=510.1  Phases=1 Conn=POWER  Model=1   kW=602 kvar=602 vminpu=0 vmaxpu=12
New Load.116  Bus1=116.1  Phases=1 Conn=POWER  Model=1   kW=602 kvar=602 vminpu=0 vmaxpu=12
New Load.179  Bus1=179.1  Phases=1 Conn=POWER  Model=1   kW=633 kvar=633 vminpu=0 vmaxpu=12
...

!ADD GENERATORS
New Generator.101 Phases=1 Bus1=101.1  kw=4.737867e+04 kvar=4.737867e+04
New Generator.144 Phases=1 Bus1=144.1  kw=4.737867e+04 kvar=4.737867e+04
New Generator.226 Phases=1 Bus1=226.1  kw=4.737867e+04 kvar=4.737867e+04
New Generator.238 Phases=1 Bus1=238.1  kw=4.737867e+04 kvar=4.737867e+04
New Generator.242 Phases=1 Bus1=242.1  kw=4.737867e+04 kvar=4.737867e+04
New Generator.246 Phases=1 Bus1=246.1  kw=4.737867e+04 kvar=4.737867e+04
New Generator.248 Phases=1 Bus1=248.1  kw=4.737867e+04 kvar=4.737867e+04
New Generator.277 Phases=1 Bus1=277.1  kw=4.737867e+04 kvar=4.737867e+04
New Generator.294 Phases=1 Bus1=294.1  kw=4.737867e+04 kvar=4.737867e+04
New Generator.304 Phases=1 Bus1=304.1  kw=4.737867e+04 kvar=4.737867e+04
New Generator.318 Phases=1 Bus1=318.1  kw=4.737867e+04 kvar=4.737867e+04
New Generator.328 Phases=1 Bus1=328.1  kw=4.737867e+04 kvar=4.737867e+04
New Generator.333 Phases=1 Bus1=333.1  kw=4.737867e+04 kvar=4.737867e+04
New Generator.341 Phases=1 Bus1=341.1  kw=4.737867e+04 kvar=4.737867e+04
New Generator.349 Phases=1 Bus1=349.1  kw=4.737867e+04 kvar=4.737867e+04
New Generator.355 Phases=1 Bus1=355.1  kw=4.737867e+04 kvar=4.737867e+04
New Generator.361 Phases=1 Bus1=361.1  kw=4.737867e+04 kvar=4.737867e+04
New Generator.366 Phases=1 Bus1=366.1  kw=4.737867e+04 kvar=4.737867e+04
New Generator.376 Phases=1 Bus1=376.1  kw=4.737867e+04 kvar=4.737867e+04
New Generator.427 Phases=1 Bus1=427.1  kw=4.737867e+04 kvar=4.737867e+04

!SWITCH DEFINITIONS
New Line.101102    Phases=1 Bus1=101.1    Bus2=102.1  Switch=y Enabled=y  LineCode=mtx001
New Line.101103    Phases=1 Bus1=101.1    Bus2=103.1  Switch=y Enabled=y  LineCode=mtx002
New Line.101519    Phases=1 Bus1=101.1    Bus2=519.1  Switch=y Enabled=y  LineCode=mtx003
New Line.101520    Phases=1 Bus1=101.1    Bus2=520.1  Switch=y Enabled=y  LineCode=mtx004
New Line.102103    Phases=1 Bus1=102.1    Bus2=103.1  Switch=y Enabled=y  LineCode=mtx005
New Line.102104    Phases=1 Bus1=102.1    Bus2=104.1  Switch=y Enabled=y  LineCode=mtx006
New Line.102520    Phases=1 Bus1=102.1    Bus2=520.1  Switch=y Enabled=y  LineCode=mtx007
New Line.103104    Phases=1 Bus1=103.1    Bus2=104.1  Switch=y Enabled=y  LineCode=mtx008
New Line.103105    Phases=1 Bus1=103.1    Bus2=105.1  Switch=y Enabled=y  LineCode=mtx009
New Line.103420    Phases=1 Bus1=103.1    Bus2=420.1  Switch=y Enabled=y  LineCode=mtx010
New Line.103429    Phases=1 Bus1=103.1    Bus2=429.1  Switch=y Enabled=y  LineCode=mtx011
New Line.104105    Phases=1 Bus1=104.1    Bus2=105.1  Switch=y Enabled=y  LineCode=mtx012
New Line.104106    Phases=1 Bus1=104.1    Bus2=106.1  Switch=y Enabled=y  LineCode=mtx013
New Line.104518    Phases=1 Bus1=104.1    Bus2=518.1  Switch=y Enabled=y  LineCode=mtx014
New Line.105106    Phases=1 Bus1=105.1    Bus2=106.1  Switch=y Enabled=y  LineCode=mtx015
New Line.105107    Phases=1 Bus1=105.1    Bus2=107.1  Switch=y Enabled=y  LineCode=mtx016
New Line.106107    Phases=1 Bus1=106.1    Bus2=107.1  Switch=y Enabled=y  LineCode=mtx017
New Line.106108    Phases=1 Bus1=106.1    Bus2=108.1  Switch=y Enabled=y  LineCode=mtx018
New Line.107108    Phases=1 Bus1=107.1    Bus2=108.1  Switch=y Enabled=y  LineCode=mtx019
New Line.107109    Phases=1 Bus1=107.1    Bus2=109.1  Switch=y Enabled=y  LineCode=mtx020
New Line.108109    Phases=1 Bus1=108.1    Bus2=109.1  Switch=y Enabled=y  LineCode=mtx021
New Line.108110    Phases=1 Bus1=108.1    Bus2=110.1  Switch=y Enabled=y  LineCode=mtx022
New Line.109110    Phases=1 Bus1=109.1    Bus2=110.1  Switch=y Enabled=y  LineCode=mtx023
New Line.109111    Phases=1 Bus1=109.1    Bus2=111.1  Switch=y Enabled=y  LineCode=mtx024
New Line.110111    Phases=1 Bus1=110.1    Bus2=111.1  Switch=y Enabled=y  LineCode=mtx025
New Line.110112    Phases=1 Bus1=110.1    Bus2=112.1  Switch=y Enabled=y  LineCode=mtx026
New Line.111112    Phases=1 Bus1=111.1    Bus2=112.1  Switch=y Enabled=y  LineCode=mtx027
New Line.111113    Phases=1 Bus1=111.1    Bus2=113.1  Switch=y Enabled=y  LineCode=mtx028
New Line.112113    Phases=1 Bus1=112.1    Bus2=113.1  Switch=y Enabled=y  LineCode=mtx029
New Line.112114    Phases=1 Bus1=112.1    Bus2=114.1  Switch=y Enabled=y  LineCode=mtx030
New Line.113114    Phases=1 Bus1=113.1    Bus2=114.1  Switch=y Enabled=y  LineCode=mtx031
New Line.113477    Phases=1 Bus1=113.1    Bus2=477.1  Switch=y Enabled=y  LineCode=mtx032
New Line.114115    Phases=1 Bus1=114.1    Bus2=115.1  Switch=y Enabled=y  LineCode=mtx033
New Line.114116    Phases=1 Bus1=114.1    Bus2=116.1  Switch=y Enabled=y  LineCode=mtx034
New Line.115116    Phases=1 Bus1=115.1    Bus2=116.1  Switch=y Enabled=y  LineCode=mtx035
New Line.115117    Phases=1 Bus1=115.1    Bus2=117.1  Switch=y Enabled=y  LineCode=mtx036
New Line.116117    Phases=1 Bus1=116.1    Bus2=117.1  Switch=y Enabled=y  LineCode=mtx037
New Line.116118    Phases=1 Bus1=116.1    Bus2=118.1  Switch=y Enabled=y  LineCode=mtx038
New Line.117118    Phases=1 Bus1=117.1    Bus2=118.1  Switch=y Enabled=y  LineCode=mtx039
New Line.117119    Phases=1 Bus1=117.1    Bus2=119.1  Switch=y Enabled=y  LineCode=mtx040
New Line.118119    Phases=1 Bus1=118.1    Bus2=119.1  Switch=y Enabled=y  LineCode=mtx041
New Line.118120    Phases=1 Bus1=118.1    Bus2=120.1  Switch=y Enabled=y  LineCode=mtx042
New Line.119120    Phases=1 Bus1=119.1    Bus2=120.1  Switch=y Enabled=y  LineCode=mtx043
New Line.119121    Phases=1 Bus1=119.1    Bus2=121.1  Switch=y Enabled=y  LineCode=mtx044
New Line.120121    Phases=1 Bus1=120.1    Bus2=121.1  Switch=y Enabled=y  LineCode=mtx045
New Line.120122    Phases=1 Bus1=120.1    Bus2=122.1  Switch=y Enabled=y  LineCode=mtx046
New Line.122121    Phases=1 Bus1=122.1    Bus2=121.1  Switch=y Enabled=y  LineCode=mtx047
New Line.123121    Phases=1 Bus1=123.1    Bus2=121.1  Switch=y Enabled=y  LineCode=mtx048
New Line.123122    Phases=1 Bus1=123.1    Bus2=122.1  Switch=y Enabled=y  LineCode=mtx049
New Line.124122    Phases=1 Bus1=124.1    Bus2=122.1  Switch=y Enabled=y  LineCode=mtx050
New Line.124123    Phases=1 Bus1=124.1    Bus2=123.1  Switch=y Enabled=y  LineCode=mtx051
New Line.125123    Phases=1 Bus1=125.1    Bus2=123.1  Switch=y Enabled=y  LineCode=mtx052
New Line.125124    Phases=1 Bus1=125.1    Bus2=124.1  Switch=y Enabled=y  LineCode=mtx053
New Line.126124    Phases=1 Bus1=126.1    Bus2=124.1  Switch=y Enabled=y  LineCode=mtx054
New Line.126125    Phases=1 Bus1=126.1    Bus2=125.1  Switch=y Enabled=y  LineCode=mtx055
New Line.127125    Phases=1 Bus1=127.1    Bus2=125.1  Switch=y Enabled=y  LineCode=mtx056
New Line.127126    Phases=1 Bus1=127.1    Bus2=126.1  Switch=y Enabled=y  LineCode=mtx057
New Line.128126    Phases=1 Bus1=128.1    Bus2=126.1  Switch=y Enabled=y  LineCode=mtx058
New Line.128127    Phases=1 Bus1=128.1    Bus2=127.1  Switch=y Enabled=y  LineCode=mtx059
New Line.129127    Phases=1 Bus1=129.1    Bus2=127.1  Switch=y Enabled=y  LineCode=mtx060
New Line.129128    Phases=1 Bus1=129.1    Bus2=128.1  Switch=y Enabled=y  LineCode=mtx061
New Line.130128    Phases=1 Bus1=130.1    Bus2=128.1  Switch=y Enabled=y  LineCode=mtx062
New Line.130129    Phases=1 Bus1=130.1    Bus2=129.1  Switch=y Enabled=y  LineCode=mtx063
New Line.131129    Phases=1 Bus1=131.1    Bus2=129.1  Switch=y Enabled=y  LineCode=mtx064
New Line.131130    Phases=1 Bus1=131.1    Bus2=130.1  Switch=y Enabled=y  LineCode=mtx065
New Line.132130    Phases=1 Bus1=132.1    Bus2=130.1  Switch=y Enabled=y  LineCode=mtx066
New Line.132131    Phases=1 Bus1=132.1    Bus2=131.1  Switch=y Enabled=y  LineCode=mtx067
New Line.133131    Phases=1 Bus1=133.1    Bus2=131.1  Switch=y Enabled=y  LineCode=mtx068
New Line.133132    Phases=1 Bus1=133.1    Bus2=132.1  Switch=y Enabled=y  LineCode=mtx069
New Line.134132    Phases=1 Bus1=134.1    Bus2=132.1  Switch=y Enabled=y  LineCode=mtx070
New Line.135133    Phases=1 Bus1=135.1    Bus2=133.1  Switch=y Enabled=y  LineCode=mtx071
New Line.185133    Phases=1 Bus1=185.1    Bus2=133.1  Switch=y Enabled=y  LineCode=mtx072
New Line.135134    Phases=1 Bus1=135.1    Bus2=134.1  Switch=y Enabled=y  LineCode=mtx073
New Line.136134    Phases=1 Bus1=136.1    Bus2=134.1  Switch=y Enabled=y  LineCode=mtx074
New Line.136135    Phases=1 Bus1=136.1    Bus2=135.1  Switch=y Enabled=y  LineCode=mtx075
New Line.137135    Phases=1 Bus1=137.1    Bus2=135.1  Switch=y Enabled=y  LineCode=mtx076
New Line.137136    Phases=1 Bus1=137.1    Bus2=136.1  Switch=y Enabled=y  LineCode=mtx077
New Line.138136    Phases=1 Bus1=138.1    Bus2=136.1  Switch=y Enabled=y  LineCode=mtx078
New Line.138137    Phases=1 Bus1=138.1    Bus2=137.1  Switch=y Enabled=y  LineCode=mtx079
New Line.139137    Phases=1 Bus1=139.1    Bus2=137.1  Switch=y Enabled=y  LineCode=mtx080
New Line.139138    Phases=1 Bus1=139.1    Bus2=138.1  Switch=y Enabled=y  LineCode=mtx081
New Line.140138    Phases=1 Bus1=140.1    Bus2=138.1  Switch=y Enabled=y  LineCode=mtx082
New Line.140139    Phases=1 Bus1=140.1    Bus2=139.1  Switch=y Enabled=y  LineCode=mtx083
New Line.141139    Phases=1 Bus1=141.1    Bus2=139.1  Switch=y Enabled=y  LineCode=mtx084
New Line.141140    Phases=1 Bus1=141.1    Bus2=140.1  Switch=y Enabled=y  LineCode=mtx085
New Line.142140    Phases=1 Bus1=142.1    Bus2=140.1  Switch=y Enabled=y  LineCode=mtx086
New Line.142141    Phases=1 Bus1=142.1    Bus2=141.1  Switch=y Enabled=y  LineCode=mtx087
New Line.143141    Phases=1 Bus1=143.1    Bus2=141.1  Switch=y Enabled=y  LineCode=mtx088
New Line.143142    Phases=1 Bus1=143.1    Bus2=142.1  Switch=y Enabled=y  LineCode=mtx089
New Line.144142    Phases=1 Bus1=144.1    Bus2=142.1  Switch=y Enabled=y  LineCode=mtx090
New Line.144143    Phases=1 Bus1=144.1    Bus2=143.1  Switch=y Enabled=y  LineCode=mtx091
New Line.145143    Phases=1 Bus1=145.1    Bus2=143.1  Switch=y Enabled=y  LineCode=mtx092
New Line.145144    Phases=1 Bus1=145.1    Bus2=144.1  Switch=y Enabled=y  LineCode=mtx093
New Line.146144    Phases=1 Bus1=146.1    Bus2=144.1  Switch=y Enabled=y  LineCode=mtx094
New Line.146145    Phases=1 Bus1=146.1    Bus2=145.1  Switch=y Enabled=y  LineCode=mtx095
New Line.147145    Phases=1 Bus1=147.1    Bus2=145.1  Switch=y Enabled=y  LineCode=mtx096
New Line.147146    Phases=1 Bus1=147.1    Bus2=146.1  Switch=y Enabled=y  LineCode=mtx097
New Line.148146    Phases=1 Bus1=148.1    Bus2=146.1  Switch=y Enabled=y  LineCode=mtx098
New Line.148147    Phases=1 Bus1=148.1    Bus2=147.1  Switch=y Enabled=y  LineCode=mtx099
New Line.149147    Phases=1 Bus1=149.1    Bus2=147.1  Switch=y Enabled=y  LineCode=mtx100
New Line.149148    Phases=1 Bus1=149.1    Bus2=148.1  Switch=y Enabled=y  LineCode=mtx101
New Line.150148    Phases=1 Bus1=150.1    Bus2=148.1  Switch=y Enabled=y  LineCode=mtx102
New Line.150149    Phases=1 Bus1=150.1    Bus2=149.1  Switch=y Enabled=y  LineCode=mtx103
New Line.151149    Phases=1 Bus1=151.1    Bus2=149.1  Switch=y Enabled=y  LineCode=mtx104
New Line.151150    Phases=1 Bus1=151.1    Bus2=150.1  Switch=y Enabled=y  LineCode=mtx105
New Line.152150    Phases=1 Bus1=152.1    Bus2=150.1  Switch=y Enabled=y  LineCode=mtx106
New Line.152151    Phases=1 Bus1=152.1    Bus2=151.1  Switch=y Enabled=y  LineCode=mtx107
New Line.153151    Phases=1 Bus1=153.1    Bus2=151.1  Switch=y Enabled=y  LineCode=mtx108
New Line.153152    Phases=1 Bus1=153.1    Bus2=152.1  Switch=y Enabled=y  LineCode=mtx109
New Line.154152    Phases=1 Bus1=154.1    Bus2=152.1  Switch=y Enabled=y  LineCode=mtx110
New Line.154153    Phases=1 Bus1=154.1    Bus2=153.1  Switch=y Enabled=y  LineCode=mtx111
New Line.155153    Phases=1 Bus1=155.1    Bus2=153.1  Switch=y Enabled=y  LineCode=mtx112
New Line.155154    Phases=1 Bus1=155.1    Bus2=154.1  Switch=y Enabled=y  LineCode=mtx113
New Line.156154    Phases=1 Bus1=156.1    Bus2=154.1  Switch=y Enabled=y  LineCode=mtx114
New Line.156155    Phases=1 Bus1=156.1    Bus2=155.1  Switch=y Enabled=y  LineCode=mtx115
New Line.157155    Phases=1 Bus1=157.1    Bus2=155.1  Switch=y Enabled=y  LineCode=mtx116
New Line.157156    Phases=1 Bus1=157.1    Bus2=156.1  Switch=y Enabled=y  LineCode=mtx117
New Line.158156    Phases=1 Bus1=158.1    Bus2=156.1  Switch=y Enabled=y  LineCode=mtx118
New Line.158157    Phases=1 Bus1=158.1    Bus2=157.1  Switch=y Enabled=y  LineCode=mtx119
New Line.159157    Phases=1 Bus1=159.1    Bus2=157.1  Switch=y Enabled=y  LineCode=mtx120
New Line.159158    Phases=1 Bus1=159.1    Bus2=158.1  Switch=y Enabled=y  LineCode=mtx121
New Line.160158    Phases=1 Bus1=160.1    Bus2=158.1  Switch=y Enabled=y  LineCode=mtx122
New Line.161159    Phases=1 Bus1=161.1    Bus2=159.1  Switch=y Enabled=y  LineCode=mtx123
New Line.237159    Phases=1 Bus1=237.1    Bus2=159.1  Switch=y Enabled=y  LineCode=mtx124
New Line.161160    Phases=1 Bus1=161.1    Bus2=160.1  Switch=y Enabled=y  LineCode=mtx125
New Line.162160    Phases=1 Bus1=162.1    Bus2=160.1  Switch=y Enabled=y  LineCode=mtx126
New Line.162161    Phases=1 Bus1=162.1    Bus2=161.1  Switch=y Enabled=y  LineCode=mtx127
New Line.163161    Phases=1 Bus1=163.1    Bus2=161.1  Switch=y Enabled=y  LineCode=mtx128
New Line.163162    Phases=1 Bus1=163.1    Bus2=162.1  Switch=y Enabled=y  LineCode=mtx129
New Line.164162    Phases=1 Bus1=164.1    Bus2=162.1  Switch=y Enabled=y  LineCode=mtx130
New Line.164163    Phases=1 Bus1=164.1    Bus2=163.1  Switch=y Enabled=y  LineCode=mtx131
New Line.165163    Phases=1 Bus1=165.1    Bus2=163.1  Switch=y Enabled=y  LineCode=mtx132
New Line.165164    Phases=1 Bus1=165.1    Bus2=164.1  Switch=y Enabled=y  LineCode=mtx133
New Line.166164    Phases=1 Bus1=166.1    Bus2=164.1  Switch=y Enabled=y  LineCode=mtx134
New Line.166165    Phases=1 Bus1=166.1    Bus2=165.1  Switch=y Enabled=y  LineCode=mtx135
New Line.167165    Phases=1 Bus1=167.1    Bus2=165.1  Switch=y Enabled=y  LineCode=mtx136
New Line.167166    Phases=1 Bus1=167.1    Bus2=166.1  Switch=y Enabled=y  LineCode=mtx137
New Line.168166    Phases=1 Bus1=168.1    Bus2=166.1  Switch=y Enabled=y  LineCode=mtx138
New Line.168167    Phases=1 Bus1=168.1    Bus2=167.1  Switch=y Enabled=y  LineCode=mtx139
New Line.169167    Phases=1 Bus1=169.1    Bus2=167.1  Switch=y Enabled=y  LineCode=mtx140
New Line.169168    Phases=1 Bus1=169.1    Bus2=168.1  Switch=y Enabled=y  LineCode=mtx141
New Line.170168    Phases=1 Bus1=170.1    Bus2=168.1  Switch=y Enabled=y  LineCode=mtx142
New Line.170169    Phases=1 Bus1=170.1    Bus2=169.1  Switch=y Enabled=y  LineCode=mtx143
New Line.171169    Phases=1 Bus1=171.1    Bus2=169.1  Switch=y Enabled=y  LineCode=mtx144
New Line.171170    Phases=1 Bus1=171.1    Bus2=170.1  Switch=y Enabled=y  LineCode=mtx145
New Line.172170    Phases=1 Bus1=172.1    Bus2=170.1  Switch=y Enabled=y  LineCode=mtx146
New Line.172171    Phases=1 Bus1=172.1    Bus2=171.1  Switch=y Enabled=y  LineCode=mtx147
New Line.173171    Phases=1 Bus1=173.1    Bus2=171.1  Switch=y Enabled=y  LineCode=mtx148
New Line.173172    Phases=1 Bus1=173.1    Bus2=172.1  Switch=y Enabled=y  LineCode=mtx149
New Line.174172    Phases=1 Bus1=174.1    Bus2=172.1  Switch=y Enabled=y  LineCode=mtx150
New Line.174173    Phases=1 Bus1=174.1    Bus2=173.1  Switch=y Enabled=y  LineCode=mtx151
New Line.175173    Phases=1 Bus1=175.1    Bus2=173.1  Switch=y Enabled=y  LineCode=mtx152
New Line.175174    Phases=1 Bus1=175.1    Bus2=174.1  Switch=y Enabled=y  LineCode=mtx153
New Line.176174    Phases=1 Bus1=176.1    Bus2=174.1  Switch=y Enabled=y  LineCode=mtx154
New Line.176175    Phases=1 Bus1=176.1    Bus2=175.1  Switch=y Enabled=y  LineCode=mtx155
New Line.177175    Phases=1 Bus1=177.1    Bus2=175.1  Switch=y Enabled=y  LineCode=mtx156
New Line.177176    Phases=1 Bus1=177.1    Bus2=176.1  Switch=y Enabled=y  LineCode=mtx157
New Line.178176    Phases=1 Bus1=178.1    Bus2=176.1  Switch=y Enabled=y  LineCode=mtx158
New Line.178177    Phases=1 Bus1=178.1    Bus2=177.1  Switch=y Enabled=y  LineCode=mtx159
New Line.179177    Phases=1 Bus1=179.1    Bus2=177.1  Switch=y Enabled=y  LineCode=mtx160
New Line.179178    Phases=1 Bus1=179.1    Bus2=178.1  Switch=y Enabled=y  LineCode=mtx161
New Line.180178    Phases=1 Bus1=180.1    Bus2=178.1  Switch=y Enabled=y  LineCode=mtx162
New Line.180179    Phases=1 Bus1=180.1    Bus2=179.1  Switch=y Enabled=y  LineCode=mtx163
New Line.181179    Phases=1 Bus1=181.1    Bus2=179.1  Switch=y Enabled=y  LineCode=mtx164
New Line.181180    Phases=1 Bus1=181.1    Bus2=180.1  Switch=y Enabled=y  LineCode=mtx165
New Line.182180    Phases=1 Bus1=182.1    Bus2=180.1  Switch=y Enabled=y  LineCode=mtx166
New Line.182181    Phases=1 Bus1=182.1    Bus2=181.1  Switch=y Enabled=y  LineCode=mtx167
New Line.183181    Phases=1 Bus1=183.1    Bus2=181.1  Switch=y Enabled=y  LineCode=mtx168
New Line.183182    Phases=1 Bus1=183.1    Bus2=182.1  Switch=y Enabled=y  LineCode=mtx169
New Line.184182    Phases=1 Bus1=184.1    Bus2=182.1  Switch=y Enabled=y  LineCode=mtx170
New Line.184183    Phases=1 Bus1=184.1    Bus2=183.1  Switch=y Enabled=y  LineCode=mtx171
New Line.185183    Phases=1 Bus1=185.1    Bus2=183.1  Switch=y Enabled=y  LineCode=mtx172
New Line.185184    Phases=1 Bus1=185.1    Bus2=184.1  Switch=y Enabled=y  LineCode=mtx173
New Line.186184    Phases=1 Bus1=186.1    Bus2=184.1  Switch=y Enabled=y  LineCode=mtx174
New Line.186185    Phases=1 Bus1=186.1    Bus2=185.1  Switch=y Enabled=y  LineCode=mtx175
New Line.187185    Phases=1 Bus1=187.1    Bus2=185.1  Switch=y Enabled=y  LineCode=mtx176
New Line.187186    Phases=1 Bus1=187.1    Bus2=186.1  Switch=y Enabled=y  LineCode=mtx177
New Line.188186    Phases=1 Bus1=188.1    Bus2=186.1  Switch=y Enabled=y  LineCode=mtx178
New Line.188187    Phases=1 Bus1=188.1    Bus2=187.1  Switch=y Enabled=y  LineCode=mtx179
New Line.189187    Phases=1 Bus1=189.1    Bus2=187.1  Switch=y Enabled=y  LineCode=mtx180
New Line.189188    Phases=1 Bus1=189.1    Bus2=188.1  Switch=y Enabled=y  LineCode=mtx181
New Line.190188    Phases=1 Bus1=190.1    Bus2=188.1  Switch=y Enabled=y  LineCode=mtx182
New Line.190189    Phases=1 Bus1=190.1    Bus2=189.1  Switch=y Enabled=y  LineCode=mtx183
New Line.191189    Phases=1 Bus1=191.1    Bus2=189.1  Switch=y Enabled=y  LineCode=mtx184
New Line.191190    Phases=1 Bus1=191.1    Bus2=190.1  Switch=y Enabled=y  LineCode=mtx185
New Line.192190    Phases=1 Bus1=192.1    Bus2=190.1  Switch=y Enabled=y  LineCode=mtx186
New Line.192191    Phases=1 Bus1=192.1    Bus2=191.1  Switch=y Enabled=y  LineCode=mtx187
New Line.193191    Phases=1 Bus1=193.1    Bus2=191.1  Switch=y Enabled=y  LineCode=mtx188
New Line.193192    Phases=1 Bus1=193.1    Bus2=192.1  Switch=y Enabled=y  LineCode=mtx189
New Line.194192    Phases=1 Bus1=194.1    Bus2=192.1  Switch=y Enabled=y  LineCode=mtx190
New Line.194193    Phases=1 Bus1=194.1    Bus2=193.1  Switch=y Enabled=y  LineCode=mtx191
New Line.195193    Phases=1 Bus1=195.1    Bus2=193.1  Switch=y Enabled=y  LineCode=mtx192
New Line.195194    Phases=1 Bus1=195.1    Bus2=194.1  Switch=y Enabled=y  LineCode=mtx193
New Line.196194    Phases=1 Bus1=196.1    Bus2=194.1  Switch=y Enabled=y  LineCode=mtx194
New Line.196195    Phases=1 Bus1=196.1    Bus2=195.1  Switch=y Enabled=y  LineCode=mtx195
New Line.197195    Phases=1 Bus1=197.1    Bus2=195.1  Switch=y Enabled=y  LineCode=mtx196
New Line.197196    Phases=1 Bus1=197.1    Bus2=196.1  Switch=y Enabled=y  LineCode=mtx197
New Line.198196    Phases=1 Bus1=198.1    Bus2=196.1  Switch=y Enabled=y  LineCode=mtx198
New Line.198197    Phases=1 Bus1=198.1    Bus2=197.1  Switch=y Enabled=y  LineCode=mtx199
New Line.199197    Phases=1 Bus1=199.1    Bus2=197.1  Switch=y Enabled=y  LineCode=mtx200
...

Set voltagebases=[0.4]
Set tolerance=0.000001
Calcvoltagebases
Solve
